#rMN15L Def2TZVP/W06 opt freq

Title

0 1
C       -0.426343000     -0.311178000      0.000071000
C        0.969860000     -0.311208000      0.000584000
C        1.667960000      0.897681000     -0.000093000
C        0.969892000      2.106829000     -0.001023000
C       -0.426114000      2.106857000     -0.001419000
C       -1.124315000      0.897807000     -0.000986000
H       -0.969536000     -1.252100000      0.000437000
H        1.512929000     -1.252211000      0.001366000
H        2.754412000      0.897781000      0.000177000
H        1.513321000      3.047608000     -0.001450000
H       -0.969399000      3.047727000     -0.002253000
H       -2.210775000      0.897974000     -0.001321000








